26
Atoms. Timestep: 0
Au 0 0 0
Au -8.87803 -0.53645 0.19258
Au -7.06365 1.76129 -0.29539
Au -5.40391 4.08452 -0.96449
Au -4.63949 0.4575 0.77061
Au -6.28023 -1.92323 0.60467
Au -4.53662 1.38337 -1.96234
Au -6.86736 -0.56702 -2.01609
Au -5.52414 3.03586 1.87345
Au -7.07995 0.4345 2.36911
Au -3.2648 -2.06975 1.24991
Au -4.18824 -1.56643 -1.50541
Au -2.0273 0.15485 -0.53999
Au 0 0 6
Au -8.87803 -0.53645 6.19258
Au -7.06365 1.76129 5.29539
Au -5.40391 4.08452 5.96449
Au -4.63949 0.4575 6.77061
Au -6.28023 -1.92323 6.60467
Au -4.53662 1.38337 4.96234
Au -6.86736 -0.56702 4.01609
Au -5.52414 3.03586 7.87345
Au -7.07995 0.4345 8.36911
Au -3.2648 -2.06975 7.24991
Au -4.18824 -1.56643 4.50541
Au -2.0273 0.15485 5.53999
26
Atoms. Timestep: 1
Au 0.0296477 0.0187105 -0.00288954
Au -8.86356 -0.558955 0.184968
Au -7.04827 1.7693 -0.261573
Au -5.40097 4.07757 -0.979446
Au -4.65769 0.471784 0.799204
Au -6.28718 -1.92522 0.593228
Au -4.54867 1.37819 -1.98046
Au -6.86615 -0.564073 -2.02292
Au -5.519 3.0426 1.88138
Au -7.0896 0.440998 2.36578
Au -3.26578 -2.06314 1.25948
Au -4.19224 -1.5563 -1.5185
Au -2.03399 0.141499 -0.565882
Au 0.0184102 0.00266075 6.01023
Au -8.87784 -0.518179 6.18634
Au -7.07613 1.75518 5.29524
Au -5.39407 4.09241 5.96951
Au -4.63708 0.445032 6.79647
Au -6.27691 -1.90705 6.60886
Au -4.5436 1.37334 4.94052
Au -6.88254 -0.57701 4.03425
Au -5.53018 3.05288 7.86395
Au -7.09952 0.430764 8.36852
Au -3.25322 -2.08251 7.25331
Au -4.17676 -1.5776 4.51499
Au -2.03454 0.13514 5.52612
26
Atoms. Timestep: 2
Au 0.0606716 0.0373382 -0.00540493
Au -8.84873 -0.581399 0.177323
Au -7.03262 1.77723 -0.227763
Au -5.39809 4.07028 -0.994259
Au -4.676 0.486026 0.827682
Au -6.29403 -1.92691 0.581661
Au -4.56086 1.37292 -1.99829
Au -6.8648 -0.561048 -2.02942
Au -5.51391 3.04912 1.88905
Au -7.0999 0.451023 2.35642
Au -3.26698 -2.05631 1.26889
Au -4.19639 -1.54597 -1.53135
Au -2.04228 0.128146 -0.59212
Au 0.0386769 0.00520307 6.02089
Au -8.87732 -0.499806 6.18013
Au -7.08862 1.74889 5.29524
Au -5.38418 4.10063 5.97348
Au -4.63461 0.431112 6.82479
Au -6.27346 -1.8906 6.61302
Au -4.55074 1.36485 4.91615
Au -6.89694 -0.590535 4.05834
Au -5.53632 3.06917 7.85542
Au -7.11899 0.42706 8.36754
Au -3.24184 -2.09507 7.25644
Au -4.16535 -1.58867 4.52482
Au -2.04383 0.115354 5.512
26
Atoms. Timestep: 3
Au 0.0925774 0.0559273 -0.00767662
Au -8.83354 -0.603785 0.16965
Au -7.0167 1.78508 -0.193975
Au -5.39527 4.06266 -1.00892
Au -4.69441 0.500225 0.856035
Au -6.30077 -1.92831 0.569969
Au -4.57319 1.36755 -2.01583
Au -6.86331 -0.55795 -2.03561
Au -5.5089 3.05541 1.89648
Au -7.11064 0.463666 2.34256
Au -3.26839 -2.04925 1.27815
Au -4.20066 -1.53545 -1.54398
Au -2.05171 0.114752 -0.618564
Au 0.0602974 0.00767478 6.03188
Au -8.8765 -0.481342 6.17394
Au -7.10111 1.74242 5.2954
Au -5.37421 4.10924 5.97627
Au -4.63206 0.416206 6.85474
Au -6.26986 -1.87388 6.61715
Au -4.55808 1.35742 4.89007
Au -6.91075 -0.606677 4.08685
Au -5.54257 3.08465 7.848
Au -7.13834 0.423391 8.36616
Au -3.23069 -2.10745 7.25931
Au -4.154 -1.59961 4.53489
Au -2.05467 0.0954492 5.49774
26
Atoms. Timestep: 4
Au 0.124997 0.0745017 -0.00980518
Au -8.81799 -0.626111 0.16195
Au -7.00054 1.79282 -0.160235
Au -5.39248 4.05472 -1.0234
Au -4.71289 0.514373 0.884251
Au -6.30742 -1.9294 0.558153
Au -4.58565 1.36209 -2.03307
Au -6.86167 -0.554784 -2.04148
Au -5.50396 3.06147 1.90366
Au -7.12164 0.478095 2.3256
Au -3.27001 -2.04197 1.28725
Au -4.20508 -1.52475 -1.55639
Au -2.06192 0.101301 -0.645114
Au 0.0828526 0.0101083 6.0431
Au -8.87537 -0.462798 6.16777
Au -7.11356 1.73576 5.29571
Au -5.36415 4.11833 5.97774
Au -4.62941 0.400655 6.88571
Au -6.26609 -1.85691 6.62125
Au -4.56562 1.35073 4.8629
Au -6.92415 -0.624585 4.11839
Au -5.54897 3.09926 7.84181
Au -7.15756 0.41976 8.36439
Au -3.21976 -2.11963 7.2619
Au -4.14272 -1.61042 4.54518
Au -2.06666 0.0753998 5.48343
26
Atoms. Timestep: 5
Au 0.157667 0.0930729 -0.0118646
Au -8.80207 -0.648372 0.154223
Au -6.98419 1.80043 -0.126587
Au -5.38972 4.04645 -1.03767
Au -4.73143 0.528459 0.912321
Au -6.31397 -1.93018 0.546214
Au -4.59821 1.35653 -2.05
Au -6.85989 -0.551552 -2.04702
Au -5.49909 3.06729 1.9106
Au -7.13273 0.493682 2.30664
Au -3.27184 -2.03445 1.2962
Au -4.20964 -1.51388 -1.56858
Au -2.07267 0.0877948 -0.671697
Au 0.106014 0.0125237 6.05448
Au -8.87394 -0.444176 6.16161
Au -7.12597 1.72892 5.29615
Au -5.35397 4.12795 5.9778
Au -4.62667 0.384699 6.91729
Au -6.26214 -1.83969 6.62534
Au -4.57339 1.34454 4.83505
Au -6.93729 -0.643602 4.15189
Au -5.55554 3.11294 7.83697
Au -7.17664 0.416159 8.36225
Au -3.2091 -2.13163 7.26422
Au -4.13152 -1.62108 4.55568
Au -2.07949 0.0551922 5.46916
